实验/4601-system/case4601.py
from numpy import array

def load_case_data():
    ppc = {}
    ppc['version'] = '2'
    ppc['baseMVA'] = 100.0
    ppc['bus'] = array([
        [1, 1, 0, 0, 0, 0, 1, 0.975, 0, 69, 1, 1.05],
        [2, 2, 0, 0, 0, 0, 1, 0.975, 0, 138, 1, 1.05],
        [3, 1, 0, 0, 0, 0, 1, 0.975, 0, 69, 1, 1.05],
        [4, 1, 0, 0, 0, 0, 1, 0.975, 0, 69, 1, 1.05],
        [5, 1, 0, 0, 0, 0, 1, 0.975, 0, 138, 1, 1.05],
        [6, 1, 0, 0, 0, 0, 1, 0.975, 0, 69, 1, 1.05],
        [7, 1, 0, 0, 0, 0, 1, 0.975, 0, 69, 1, 1.05],
        [8, 1, 0, 0, 0, 0, 1, 0.975, 0, 69, 1, 1.05],
        [9, 1, 0, 0, 0, 0, 1, 0.975, 0, 69, 1, 1.05],
        [10, 1, 0, 0, 0, 0, 1, 0.975, 0, 69, 1, 1.05],
        [11, 2, 0, 0, 0, 0, 1, 0.975, 0, 69, 1, 1.05],
        [12, 1, 0, 0, 0, 0, 1, 0.975, 0, 69, 1, 1.05],
        [13, 1, 0, 0, 0, 0, 1, 0.975, 0, 69, 1, 1.05],
        [14, 1, 0, 0, 0, 0, 1, 0.975, 0, 69, 1, 1.05],
        [15, 1, 0, 0, 0, 0, 1, 0.975, 0, 69, 1, 1.05],
        [16, 1, 0, 0, 0, 0, 1, 0.975, 0, 69, 1, 1.05],
        [17, 1, 0, 0, 0, 0, 1, 0.975, 0, 69, 1, 1.05],
        [18, 1, 0, 0, 0, 0, 1, 0.975, 0, 69, 1, 1.05],
        [19, 2, 0, 0, 0, 0, 1, 0.975, 0, 69, 1, 1.05],
        [20, 2, 0, 0, 0, 0, 1, 0.975, 0, 138, 1, 1.05],
        [21, 2, 0, 0, 0, 0, 1, 0.975, 0, 69, 1, 1.05],
        [22, 1, 0, 0, 0, 0, 1, 0.975, 0, 69, 1, 1.05],
        [23, 1, 0, 0, 0, 0, 1, 0.975, 0, 69, 1, 1.05],
        [24, 2, 0, 0, 0, 0, 1, 0.975, 0, 138, 1, 1.05],
        [25, 2, 0, 0, 0, 0, 1, 0.975, 0, 69, 1, 1.05],
        [26, 2, 0, 0, 0, 0, 1, 0.975, 0, 69, 1, 1.05],
        [27, 2, 0, 0, 0, 0, 1, 0.975, 0, 69, 1, 1.05],
        [28, 1, 0, 0, 0, 0, 1, 0.975, 0, 69, 1, 1.05],
        [29, 2, 0, 0, 0, 0, 1, 0.975, 0, 69, 1, 1.05],
        [30, 2, 0, 0, 0, 0, 1, 0.975, 0, 69, 1, 1.05],
        [31, 2, 0, 0, 0, 0, 1, 0.975, 0, 69, 1, 1.05],
        [32, 1, 0, 0, 0, 0, 1, 0.975, 0, 69, 1, 1.05],
        [33, 1, 0, 0, 0, 0, 1, 0.975, 0, 69, 1, 1.05],
        [34, 1, 0, 0, 0, 0, 1, 0.975, 0, 69, 1, 1.05],
        [35, 1, 0, 0, 0, 0, 1, 0.975, 0, 69, 1, 1.05],
        [36, 1, 0, 0, 0, 0, 1, 0.975, 0, 69, 1, 1.05],
        [37, 1, 0, 0, 0, 0, 1, 0.975, 0, 69, 1, 1.05],
        [38, 1, 0, 0, 0, 0, 1, 0.975, 0, 69, 1, 1.05],
        [39, 1, 0, 0, 0, 0, 1, 0.975, 0, 69, 1, 1.05],
        [40, 1, 0, 0, 0, 0, 1, 0.975, 0, 69, 1, 1.05],
        [41, 1, 0, 0, 0, 0, 1, 0.975, 0, 69, 1, 1.05],
        [42, 1, 0, 0, 0, 0, 1, 0.975, 0, 69, 1, 1.05],
        [43, 1, 0, 0, 0, 0, 1, 0.975, 0, 69, 1, 1.05],
        [44, 1, 0, 0, 0, 0, 1, 0.975, 0, 69, 1, 1.05],
        [45, 1, 0, 0, 0, 0, 1, 0.975, 0, 69, 1, 1.05],
        [46, 1, 0, 0, 0, 0, 1, 0.975, 0, 69, 1, 1.05],
        [47, 1, 0, 0, 0, 0, 1, 0.975, 0, 138, 1, 1.05],
        [48, 1, 0, 0, 0, 0, 1, 0.975, 0, 69, 1, 1.05],
        [49, 1, 0, 0, 0, 0, 1, 0.975, 0, 69, 1, 1.05],
        [50, 2, 0, 0, 0, 0, 1, 0.975, 0, 69, 1, 1.05],
        [51, 1, 0, 0, 0, 0, 1, 0.975, 0, 69, 1, 1.05],
        [52, 1, 0, 0, 0, 0, 1, 0.975, 0, 69, 1, 1.05],
        [53, 2, 0, 0, 0, 0, 1, 0.975, 0, 69, 1, 1.05],
        [54, 1, 0, 0, 0, 0, 1, 0.975, 0, 69, 1, 1.05],
        [55, 2, 0, 0, 0, 0, 1, 0.975, 0, 69, 1, 1.05],
        [56, 1, 0, 0, 0, 0, 1, 0.975, 0, 69, 1, 1.05],
        [57, 2, 0, 0, 0, 0, 1, 0.975, 0, 69, 1, 1.05],
        [58, 1, 0, 0, 0, 0, 1, 0.975, 0, 69, 1, 1.05],
        [59, 1, 0, 0, 0, 0, 1, 0.975, 0, 69, 1, 1.05],
        [60, 1, 0, 0, 0, 0, 1, 0.975, 0, 69, 1, 1.05],
        [61, 1, 0, 0, 0, 0, 1, 0.975, 0, 69, 1, 1.05],
        [62, 2, 0, 0, 0, 0, 1, 0.975, 0, 69, 1, 1.05],
        [63, 2, 0, 0, 0, 0, 1, 0.975, 0, 138, 1, 1.05],
        [64, 1, 0, 0, 0, 0, 1, 0.975, 0, 69, 1, 1.05],
        [65, 2, 0, 0, 0, 0, 1, 0.975, 0, 69, 1, 1.05],
        [66, 2, 0, 0, 0, 0, 1, 0.975, 0, 69, 1, 1.05],
        [67, 1, 0, 0, 0, 0, 1, 0.975, 0, 69, 1, 1.05],
        [68, 2, 0, 0, 0, 0, 1, 0.975, 0, 69, 1, 1.05],
        [69, 1, 0, 0, 0, 0, 1, 0.975, 0, 69, 1, 1.05],
        [70, 2, 0, 0, 0, 0, 1, 0.975, 0, 69, 1, 1.05],
        [71, 2, 0, 0, 0, 0, 1, 0.975, 0, 69, 1, 1.05],
        [72, 1, 0, 0, 0, 0, 1, 0.975, 0, 69, 1, 1.05],
        [73, 2, 0, 0, 0, 0, 1, 0.975, 0, 69, 1, 1.05],
        [74, 1, 0, 0, 0, 0, 1, 0.975, 0, 69, 1, 1.05],
        [75, 1, 0, 0, 0, 0, 1, 0.975, 0, 69, 1, 1.05],
        [76, 2, 0, 0, 0, 0, 1, 0.975, 0, 138, 1, 1.05],
        [77, 1, 0, 0, 0, 0, 1, 0.975, 0, 69, 1, 1.05],
        [78, 1, 0, 0, 0, 0, 1, 0.975, 0, 69, 1, 1.05],
        [79, 2, 0, 0, 0, 0, 1, 0.975, 0, 138, 1, 1.05],
        [80, 1, 0, 0, 0, 0, 1, 0.975, 0, 69, 1, 1.05],
        [81, 1, 0, 0, 0, 0, 1, 0.975, 0, 69, 1, 1.05],
        [82, 1, 0, 0, 0, 0, 1, 0.975, 0, 69, 1, 1.05],
        [83, 1, 0, 0, 0, 0, 1, 0.975, 0, 69, 1, 1.05],
        [84, 1, 0, 0, 0, 0, 1, 0.975, 0, 69, 1, 1.05],
        [85, 1, 0, 0, 0, 0, 1, 0.975, 0, 138, 1, 1.05],
        [86, 1, 0, 0, 0, 0, 1, 0.975, 0, 69, 1, 1.05],
        [87, 2, 0, 0, 0, 0, 1, 0.975, 0, 69, 1, 1.05],
        [88, 2, 0, 0, 0, 0, 1, 0.975, 0, 69, 1, 1.05],
        [89, 1, 0, 0, 0, 0, 1, 0.975, 0, 69, 1, 1.05],
        [90, 1, 0, 0, 0, 0, 1, 0.975, 0, 69, 1, 1.05],
        [91, 2, 0, 0, 0, 0, 1, 0.975, 0, 69, 1, 1.05],
        [92, 2, 0, 0, 0, 0, 1, 0.975, 0, 69, 1, 1.05],
        [93, 1, 0, 0, 0, 0, 1, 0.975, 0, 69, 1, 1.05],
        [94, 1, 0, 0, 0, 0, 1, 0.975, 0, 69, 1, 1.05],
        [95, 2, 0, 0, 0, 0, 1, 0.975, 0, 69, 1, 1.05],
        [96, 1, 0, 0, 0, 0, 1, 0.975, 0, 69, 1, 1.05],
        [97, 2, 0, 0, 0, 0, 1, 0.975, 0, 69, 1, 1.05],
        [98, 1, 0, 0, 0, 0, 1, 0.975, 0, 69, 1, 1.05],
        [99, 1, 0, 0, 0, 0, 1, 0.975, 0, 69, 1, 1.05],
        [100, 1, 0, 0, 0, 0, 1, 0.975, 0, 69, 1, 1.05],
        [101, 2, 0, 0, 0, 0, 1, 0.975, 0, 69, 1, 1.05],
        [102, 2, 0, 0, 0, 0, 1, 0.975, 0, 138, 1, 1.05],
        [103, 1, 0, 0, 0, 0, 1, 0.975, 0, 69, 1, 1.05],
        [104, 2, 0, 0, 0, 0, 1, 0.975, 0, 69, 1, 1.05],
        [105, 1, 0, 0, 0, 0, 1, 0.975, 0, 69, 1, 1.05],
        [106, 1, 0, 0, 0, 0, 1, 0.975, 0, 138, 1, 1.05],
        [107, 1, 0, 0, 0, 0, 1, 0.975, 0, 69, 1, 1.05],
        [108, 1, 0, 0, 0, 0, 1, 0.975, 0, 69, 1, 1.05],
        [109, 1, 0, 0, 0, 0, 1, 0.975, 0, 69, 1, 1.05],
        [110, 1, 0, 0, 0, 0, 1, 0.975, 0, 69, 1, 1.05],
        [111, 1, 0, 0, 0, 0, 1, 0.975, 0, 69, 1, 1.05],
        [112, 2, 0, 0, 0, 0, 1, 0.975, 0, 69, 1, 1.05],
        [113, 2, 0, 0, 0, 0, 1, 0.975, 0, 69, 1, 1.05],
        [114, 2, 0, 0, 0, 0, 1, 0.975, 0, 69, 1, 1.05],
        [115, 1, 0, 0, 0, 0, 1, 0.975, 0, 69, 1, 1.05],
        [116, 1, 0, 0, 0, 0, 1, 0.975, 0, 69, 1, 1.05],
        [117, 1, 0, 0, 0, 0, 1, 0.975, 0, 69, 1, 1.05],
        [118, 1, 0, 0, 0, 0, 1, 0.975, 0, 69, 1, 1.05],
        [119, 1, 0, 0, 0, 0, 1, 0.975, 0, 69, 1, 1.05],
        [120, 1, 0, 0, 0, 0, 1, 0.975, 0, 69, 1, 1.05],
        [121, 1, 0, 0, 0, 0, 1, 0.975, 0, 69, 1, 1.05],
        [122, 1, 0, 0, 0, 0, 1, 0.975, 0, 69, 1, 1.05],
        [123, 2, 0, 0, 0, 0, 1, 0.975, 0, 69, 1, 1.05],
        [124, 1, 0, 0, 0, 0, 1, 0.975, 0, 69, 1, 1.05],
        [125, 1, 0, 0, 0, 0, 1, 0.975, 0, 69, 1, 1.05],
        [126, 2, 0, 0, 0, 0, 1, 0.975, 0, 69, 1, 1.05],
        [127, 1, 0, 0, 0, 0, 1, 0.975, 0, 69, 1, 1.05],
        [128, 2, 0, 0, 0, 0, 1, 0.975, 0, 69, 1, 1.05],
        [129, 2, 0, 0, 0, 0, 1, 0.975, 0, 69, 1, 1.05],
        [130, 1, 0, 0, 0, 0, 1, 0.975, 0, 69, 1, 1.05],
        [131, 1, 0, 0, 0, 0, 1, 0.975, 0, 69, 1, 1.05],
        [132, 1, 6.04, 2.174, 0, 0, 1, 0.975, 0, 69, 1, 1.05],
        [133, 1, 5.09, 0.731, 0, 0, 1, 0.975, 0, 69, 1, 1.05],
        [134, 1, 8.531, 0.858, 0, 0, 1, 0.975, 0, 69, 1, 1.05],
        [135, 1, 4.563, 0.663, 0, 0, 1, 0.975, 0, 69, 1, 1.05],
        [136, 1, 11.135, 1.989, 0, 0, 1, 0.975, 0, 69, 1, 1.05],
        [137, 1, 4.504, 0.653, 0, 0, 1, 0.975, 0, 69, 1, 1.05],
        [138, 1, 7.244, 0.731, 0, 0, 1, 0.975, 0, 69, 1, 1.05],
        [139, 1, 8.853, 0.897, 0, 0, 1, 0.975, 0, 69, 1, 1.05],
        [140, 1, 4.456, 0.448, 0, 0, 1, 0.975, 0, 69, 1, 1.05],
        [141, 1, 7.595, 1.092, 0, 0, 1, 0.975, 0, 69, 1, 1.05],
        [142, 1, 4.144, 0.741, 0, 0, 1, 0.975, 0, 69, 1, 1.05],
        [143, 1, 7.761, 0.78, 0, 0, 1, 0.975, 0, 69, 1, 1.05],
        [144, 1, 7.215, 1.287, 0, 0, 1, 0.975, 0, 69, 1, 1.05],
        [145, 1, 5.684, 1.014, 0, 0, 1, 0.975, 0, 69, 1, 1.05],
        [146, 1, 3.559, 0.517, 0, 0, 1, 0.975, 0, 69, 1, 1.05],
        [147, 1, 13.299, 1.921, 0, 0, 1, 0.975, 0, 69, 1, 1.05],
        [148, 1, 3.139, 0.322, 0, 0, 1, 0.975, 0, 69, 1, 1.05],
        [149, 1, 3.18, 0.887, 0, 0, 1, 0.975, 0, 69, 1, 1.05],
        [150, 1, 3.286, 0.478, 0, 0, 1, 0.975, 0, 69, 1, 1.05],
        [151, 1, 4.173, 0.419, 0, 0, 1, 0.975, 0, 69, 1, 1.05],
        [152, 1, 7.03, 1.258, 0, 0, 1, 0.975, 0, 69, 1, 1.05],
        [153, 1, 6.045, 1.082, 0, 0, 1, 0.975, 0, 69, 1, 1.05],
        [154, 1, 6.25, 0.634, 0, 0, 1, 0.975, 0, 69, 1, 1.05],
        [155, 1, 7.059, 1.014, 0, 0, 1, 0.975, 0, 69, 1, 1.05],
        [156, 1, 3.452, 0.351, 0, 0, 1, 0.975, 0, 69, 1, 1.05],
        [157, 1, 8.151, 1.18, 0, 0, 1, 0.975, 0, 69, 1, 1.05],
        [158, 1, 6.367, 0.917, 0, 0, 1, 0.975, 0, 69, 1, 1.05],
        [159, 1, 15.229, 2.194, 0, 0, 1, 0.975, 0, 69, 1, 1.05],
        [160, 1, 34.544, 6.172, 0, 0, 1, 0.975, 0, 69, 1, 1.05],
        [161, 1, 8.414, 1.501, 0, 0, 1, 0.975, 0, 69, 1, 1.05],
        [162, 1, 22.942, 2.321, 0, 0, 1, 0.975, 0, 69, 1, 1.05],
        [163, 1, 12.607, 2.252, 0, 0, 1, 0.975, 0, 69, 1, 1.05],
        [164, 1, 5.333, 0.955, 0, 0, 1, 0.975, 0, 69, 1, 1.05],
        [165, 1, 8.736, 1.56, 0, 0, 1, 0.975, 0, 69, 1, 1.05],
        [166, 1, 4.865, 0.488, 0, 0, 1, 0.975, 0, 69, 1, 1.05],
        [167, 1, 3.92, 0.702, 0, 0, 1, 0.975, 0, 69, 1, 1.05],
        [168, 1, 13.709, 1.385, 0, 0, 1, 0.975, 0, 69, 1, 1.05],
        [169, 1, 12.11, 1.745, 0, 0, 1, 0.975, 0, 69, 1, 1.05],
        [170, 1, 24.638, 2.486, 0, 0, 1, 0.975, 0, 69, 1, 1.05],
        [171, 1, 2.038, 0.292, 0, 0, 1, 0.975, 0, 69, 1, 1.05],
        [172, 1, 5.324, 0.536, 0, 0, 1, 0.975, 0, 69, 1, 1.05],
        [173, 1, 6.474, 0.653, 0, 0, 1, 0.975, 0, 69, 1, 1.05],
        [174, 1, 3.627, 0.526, 0, 0, 1, 0.975, 0, 69, 1, 1.05],
        [175, 1, 5.762, 0.585, 0, 0, 1, 0.975, 0, 69, 1, 1.05],
        [176, 1, 5.304, 0.77, 0, 0, 1, 0.975, 0, 69, 1, 1.05],
        [177, 1, 18.71, 2.701, 0, 0, 1, 0.975, 0, 69, 1, 1.05],
        [178, 1, 2.827, 0.283, 0, 0, 1, 0.975, 0, 69, 1, 1.05],
        [179, 1, 8.034, 1.433, 0, 0, 1, 0.975, 0, 69, 1, 1.05],
        [180, 1, 4.329, 0.624, 0, 0, 1, 0.975, 0, 69, 1, 1.05],
        [181, 1, 3.871, 0.556, 0, 0, 1, 0.975, 0, 69, 1, 1.05],
        [182, 1, 9.126, 1.316, 0, 0, 1, 0.975, 0, 69, 1, 1.05],
        [183, 1, 9.662, 1.394, 0, 0, 1, 0.975, 0, 69, 1, 1.05],
        [184, 1, 4.856, 0.868, 0, 0, 1, 0.975, 0, 69, 1, 1.05],
        [185, 1, 1.404, 0.146, 0, 0, 1, 0.975, 0, 69, 1, 1.05],
        [186, 1, 4.504, 0.653, 0, 0, 1, 0.975, 0, 69, 1, 1.05],
        [187, 1, 8.892, 1.589, 0, 0, 1, 0.975, 0, 69, 1, 1.05],
        [188, 1, 3.559, 0.361, 0, 0, 1, 0.975, 0, 69, 1, 1.05],
        [189, 1, 2.72, 0.39, 0, 0, 1, 0.975, 0, 69, 1, 1.05],
        [190, 1, 7.595, 1.355, 0, 0, 1, 0.975, 0, 69, 1, 1.05],
        [191, 1, 4.085, 0.41, 0, 0, 1, 0.975, 0, 69, 1, 1.05],
        [192, 1, 2.623, 0.263, 0, 0, 1, 0.975, 0, 69, 1, 1.05],
        [193, 1, 8.492, 0.858, 0, 0, 1, 0.975, 0, 69, 1, 1.05],
        [194, 1, 12.363, 1.248, 0, 0, 1, 0.975, 0, 69, 1, 1.05],
        [195, 1, 4.651, 0.829, 0, 0, 1, 0.975, 0, 69, 1, 1.05],
        [196, 1, 5.324, 0.77, 0, 0, 1, 0.975, 0, 69, 1, 1.05],
        [197, 1, 4.992, 0.887, 0, 0, 1, 0.975, 0, 69, 1, 1.05],
        [198, 1, 7.381, 1.316, 0, 0, 1, 0.975, 0, 69, 1, 1.05],
        [199, 1, 3.89, 0.565, 0, 0, 1, 0.975, 0, 69, 1, 1.05],
        [200, 1, 9.643, 1.726, 0, 0, 1, 0.975, 0, 69, 1, 1.05],
...
    ])
    ppc['gen'] = array([
        [2, 280, 34.75, 222.8, -153.3, 0.975, 100, 1, 460],
        [11, 38.5, 9.6, 41.5, -22.3, 0.975, 100, 1, 67],
        [19, 36.1, 5.35, 23.1, -12.4, 0.975, 100, 1, 37.2],
        [20, 18.65, 0, 0, 0, 0.975, 100, 1, 31.3],
        [21, 4.215, 0.85, 4.25, -2.55, 0.975, 100, 1, 7.63],
        [21, 4.215, 0.85, 4.25, -2.55, 0.975, 100, 1, 7.63],
        [21, 4.215, 0.85, 4.25, -2.55, 0.975, 100, 1, 7.63],
        [21, 4.215, 0.85, 4.25, -2.55, 0.975, 100, 1, 7.63],
        [24, 17.75, 0, 5.2, -5.2, 0.975, 100, 1, 25.7],
        [25, 23.5, 5, 18, -8, 0.975, 100, 1, 24],
        [26, 19.1, 3.35, 14.4, -7.7, 0.975, 100, 1, 23.2],
        [26, 19.1, 3.35, 14.4, -7.7, 0.975, 100, 1, 23.2],
        [26, 19.1, 3.35, 14.4, -7.7, 0.975, 100, 1, 23.2],
        [27, 19.6, 3.1, 13.5, -7.3, 0.975, 100, 1, 21.8],
        [29, 19.6, 3.1, 13.5, -7.3, 0.975, 100, 1, 21.8],
        [30, 13.8, 3.95, 14.6, -6.7, 0.975, 100, 1, 20.2],
        [31, 19.8, 2.85, 12.4, -6.7, 0.975, 100, 1, 20],
        [31, 19.55, 2.85, 12.4, -6.7, 0.975, 100, 1, 20],
        [31, 22.05, 3.6, 15.5, -8.3, 0.975, 100, 1, 25],
        [31, 22.05, 3.6, 15.5, -8.3, 0.975, 100, 1, 25],
        [31, 21.85, 3.6, 15.5, -8.3, 0.975, 100, 1, 25],
        [50, 37, 5.2, 33.4, -23, 0.975, 100, 1, 69],
        [53, 51.45, 8.3, 35.9, -19.3, 0.975, 100, 1, 57.9],
        [53, 18.55, 3.9, 16.8, -9, 0.975, 100, 1, 27.1],
        [55, 25.05, 3.5, 22.3, -15.3, 0.975, 100, 1, 46],
        [57, 9.6, 2.035, 8.8, -4.73, 0.975, 100, 1, 14.2],
        [57, 9.6, 2.035, 8.8, -4.73, 0.975, 100, 1, 14.2],
        [57, 9.6, 2.035, 8.8, -4.73, 0.975, 100, 1, 14.2],
        [62, 6.665, 2.3, 8.27, -3.67, 0.975, 100, 1, 11],
        [62, 6.665, 2.3, 8.27, -3.67, 0.975, 100, 1, 11],
        [62, 6.665, 2.3, 8.27, -3.67, 0.975, 100, 1, 11],
        [63, 5.915, 2.265, 8.13, -3.6, 0.975, 100, 1, 10.83],
        [63, 5.915, 2.265, 8.13, -3.6, 0.975, 100, 1, 10.83],
        [63, 5.915, 2.265, 8.13, -3.6, 0.975, 100, 1, 10.83],
        [65, 4.4, 0.975, 4.22, -2.27, 0.975, 100, 1, 6.8],
        [65, 6, 1.575, 6.8, -3.65, 0.975, 100, 1, 11],
        [65, 4.4, 0.975, 4.22, -2.27, 0.975, 100, 1, 6.8],
        [65, 4.4, 0.975, 4.22, -2.27, 0.975, 100, 1, 6.8],
        [65, 4.4, 0.975, 4.22, -2.27, 0.975, 100, 1, 6.8],
        [65, 4.4, 0.975, 4.22, -2.27, 0.975, 100, 1, 6.8],
        [65, 4.4, 0.975, 4.22, -2.27, 0.975, 100, 1, 6.8],
        [65, 9.25, 1.8, 7.75, -4.15, 0.975, 100, 1, 12.5],
        [65, 9.25, 1.8, 7.75, -4.15, 0.975, 100, 1, 12.5],
        [65, 6, 1.575, 6.8, -3.65, 0.975, 100, 1, 11],
        [66, 21.85, 5.15, 18.5, -8.2, 0.975, 100, 1, 24.7],
        [68, 3.865, 0, 0, 0, 0.975, 100, 1, 7.63],
        [68, 3.865, 0, 0, 0, 0.975, 100, 1, 7.63],
        [68, 3.865, 0, 0, 0, 0.975, 100, 1, 7.63],
        [70, 17.6, 1.6, 10.3, -7.1, 0.975, 100, 1, 21.2],
        [71, 18.05, 3.05, 13.1, -7, 0.975, 100, 1, 21.1],
        [73, 6.425, 1.2, 5.75, -3.35, 0.975, 100, 1, 10],
        [73, 6.425, 1.2, 5.75, -3.35, 0.975, 100, 1, 10],
        [76, 132.2, 25.7, 111.2, -59.8, 0.975, 100, 1, 179.4],
        [76, 70.05, 13.6, 58.9, -31.7, 0.975, 100, 1, 95.1],
        [79, 53.8, 9.2, 52.6, -34.2, 0.975, 100, 1, 102.6],
        [87, 5.795, 0.565, 3.6, -2.47, 0.975, 100, 1, 7.42],
        [87, 5.795, 0.565, 3.6, -2.47, 0.975, 100, 1, 7.42],
        [87, 5.795, 0.565, 3.6, -2.47, 0.975, 100, 1, 7.42],
        [87, 5.795, 0.565, 3.6, -2.47, 0.975, 100, 1, 7.42],
        [87, 5.795, 0.565, 3.6, -2.47, 0.975, 100, 1, 7.42],
        [87, 5.795, 0.565, 3.6, -2.47, 0.975, 100, 1, 7.42],
        [88, 21, 0, 16.6, -16.6, 0.975, 100, 1, 42],
        [91, 26.25, 7.8, 28.1, -12.5, 0.975, 100, 1, 37.5],
        [92, 9.75, 2.5, 10.85, -5.85, 0.975, 100, 1, 17.5],
        [92, 9.75, 2.5, 10.85, -5.85, 0.975, 100, 1, 17.5],
        [95, 8.125, 2.05, 8.85, -4.75, 0.975, 100, 1, 14.25],
        [95, 8.125, 2.05, 8.85, -4.75, 0.975, 100, 1, 14.25],
        [97, 16.75, 3.9, 17, -9.2, 0.975, 100, 1, 27.5],
        [101, 15.15, 3.65, 15.7, -8.4, 0.975, 100, 1, 25.3],
        [102, 17, 1.9, 12.1, -8.3, 0.975, 100, 1, 25],
        [102, 17, 1.9, 12.1, -8.3, 0.975, 100, 1, 25],
        [102, 19, 2.25, 14.5, -10, 0.975, 100, 1, 30],
        [104, 14, 3.15, 13.6, -7.3, 0.975, 100, 1, 22],
        [112, 20, 5.25, 18.8, -8.3, 0.975, 100, 1, 25],
        [113, 12, 0, 9.5, -9.5, 0.975, 100, 1, 24],
        [114, 11, 1.5, 9.7, -6.7, 0.975, 100, 1, 20],
        [123, 37.25, 4.5, 28.8, -19.8, 0.975, 100, 1, 59.5],
        [126, 7.4, 0, 5.6, -5.6, 0.975, 100, 1, 11.87],
        [126, 7.4, 0, 5.6, -5.6, 0.975, 100, 1, 11.87],
        [126, 7.4, 0, 5.6, -5.6, 0.975, 100, 1, 11.87],
        [128, 9.6, 2.335, 8.4, -3.73, 0.975, 100, 1, 11.2],
        [128, 9.6, 2.335, 8.4, -3.73, 0.975, 100, 1, 11.2],
        [128, 9.6, 2.335, 8.4, -3.73, 0.975, 100, 1, 11.2],
        [129, 15.25, 3.65, 15.8, -8.5, 0.975, 100, 1, 25.5],
        [75435, 532.5, 0, 514.7, -514.7, 0.975, 100, 1, 1000],
        [75435, 425, 68.7, 440.7, -303.3, 0.975, 100, 1, 800],
        [75436, 265, 57.3, 247.9, -133.3, 0.975, 100, 1, 400],
        [75436, 110.84, 23.35, 101, -54.3, 0.975, 100, 1, 163],
        [75437, 224.5, 41.4, 179.1, -96.3, 0.975, 100, 1, 289],
        [75437, 224.5, 41.4, 179.1, -96.3, 0.975, 100, 1, 289],
        [75439, 212.5, 40.1, 173.5, -93.3, 0.975, 100, 1, 280],
        [75439, 212.5, 40.1, 173.5, -93.3, 0.975, 100, 1, 280],
        [75439, 212.5, 40.1, 173.5, -93.3, 0.975, 100, 1, 280],
        [75441, 137.7, 25.8, 111.6, -60, 0.975, 100, 1, 180],
        [75441, 130.05, 24.35, 105.4, -56.7, 0.975, 100, 1, 170],
        [75441, 130.05, 24.35, 105.4, -56.7, 0.975, 100, 1, 170],
        [75443, 169.7, 34.3, 148.4, -79.8, 0.975, 100, 1, 239.4],
        [75443, 79.3, 16.25, 70.4, -37.9, 0.975, 100, 1, 113.6],
        [75443, 269.95, 31.3, 200.9, -138.3, 0.975, 100, 1, 414.9],
        [75444, 73, 20, 72, -32, 0.975, 100, 1, 96],
        [75445, 62, 0, 27.6, -27.6, 0.975, 100, 1, 84],
        [75448, 269.95, 31.3, 200.9, -138.3, 0.975, 100, 1, 414.9],
        [75448, 57.5, 15.65, 56.3, -25, 0.975, 100, 1, 75],
        [75450, 39.75, 8.65, 37.5, -20.2, 0.975, 100, 1, 60.5],
        [75450, 39.75, 8.65, 37.5, -20.2, 0.975, 100, 1, 60.5],
        [75450, 39.75, 8.65, 37.5, -20.2, 0.975, 100, 1, 60.5],
        [75450, 39.75, 8.65, 37.5, -20.2, 0.975, 100, 1, 60.5],
        [75452, 27.5, 5.75, 24.8, -13.3, 0.975, 100, 1, 40],
        [75452, 36, 8, 34.7, -18.7, 0.975, 100, 1, 56],
        [75453, 33.5, 7.3, 31.6, -17, 0.975, 100, 1, 51],
        [75453, 33.5, 7.3, 31.6, -17, 0.975, 100, 1, 51],
        [75453, 33.5, 7.3, 31.6, -17, 0.975, 100, 1, 51],
        [75453, 33.5, 7.3, 31.6, -17, 0.975, 100, 1, 51],
        [75454, 26, 7.15, 31, -16.7, 0.975, 100, 1, 50],
        [75454, 26, 7.15, 31, -16.7, 0.975, 100, 1, 50],
        [75454, 26, 7.15, 31, -16.7, 0.975, 100, 1, 50],
        [75454, 26, 7.15, 31, -16.7, 0.975, 100, 1, 50],
        [75454, 26, 7.15, 31, -16.7, 0.975, 100, 1, 50],
        [75455, 33.5, 3.4, 21.8, -15, 0.975, 100, 1, 45],
        [75455, 33.5, 9.4, 33.8, -15, 0.975, 100, 1, 45],
        [75456, 34.55, 3.35, 21.4, -14.7, 0.975, 100, 1, 44.1],
        [75456, 19.55, 2.55, 16.5, -11.4, 0.975, 100, 1, 34.1],
        [75457, 25.9, 3.15, 20.2, -13.9, 0.975, 100, 1, 41.8],
        [75457, 25.9, 3.15, 20.2, -13.9, 0.975, 100, 1, 41.8],
        [75457, 25.9, 3.15, 20.2, -13.9, 0.975, 100, 1, 41.8],
        [75457, 25.9, 8.75, 31.4, -13.9, 0.975, 100, 1, 41.8],
        [75458, 4.05, 0, 3.55, -3.55, 0.975, 100, 1, 7.5],
        [75458, 4.05, 0, 3.55, -3.55, 0.975, 100, 1, 7.5],
        [75458, 4.05, 0, 3.55, -3.55, 0.975, 100, 1, 7.5],
        [75458, 4.05, 0, 3.55, -3.55, 0.975, 100, 1, 7.5],
        [75459, 18.9, 3.7, 16, -8.6, 0.975, 100, 1, 25.8],
        [75460, 18.95, 3.1, 13.5, -7.3, 0.975, 100, 1, 21.8],
        [75462, 375, 0, 190.6, -190.6, 0.975, 100, 1, 580],
        [75462, 392.5, 0, 240.3, -240.3, 0.975, 100, 1, 585],
        [75464, 70, 6.45, 41.2, -28.3, 0.975, 100, 1, 85],
        [75464, 64.185, 6.725, 43.15, -29.7, 0.975, 100, 1, 89.1],
        [75464, 64.185, 6.725, 43.15, -29.7, 0.975, 100, 1, 89.1],
        [75464, 64.185, 6.725, 43.15, -29.7, 0.975, 100, 1, 89.1],
        [75464, 62.5, 6.45, 41.2, -28.3, 0.975, 100, 1, 85],
        [75464, 62.5, 6.45, 41.2, -28.3, 0.975, 100, 1, 85],
        [75464, 62.5, 6.45, 41.2, -28.3, 0.975, 100, 1, 85],
        [75464, 62.5, 6.45, 41.2, -28.3, 0.975, 100, 1, 85],
        [75464, 62.5, 7.95, 50.9, -35, 0.975, 100, 1, 105],
        [75464, 64.185, 6.725, 43.15, -29.7, 0.975, 100, 1, 89.1],
        [75464, 64.185, 6.725, 43.15, -29.7, 0.975, 100, 1, 89.1],
        [75464, 64.185, 6.725, 43.15, -29.7, 0.975, 100, 1, 89.1],
        [75466, 172.5, 22.65, 145.3, -100, 0.975, 100, 1, 300],
        [75466, 172.5, 22.65, 145.3, -100, 0.975, 100, 1, 300],
        [75468, 222, 60.25, 216.8, -96.3, 0.975, 100, 1, 289],
        [75469, 219.5, 41.4, 179.1, -96.3, 0.975, 100, 1, 289],
        [75469, 219.5, 41.4, 179.1, -96.3, 0.975, 100, 1, 289],
        [75471, 219.5, 41.4, 179.1, -96.3, 0.975, 100, 1, 289],
        [75471, 219.5, 41.4, 179.1, -96.3, 0.975, 100, 1, 289],
        [75474, 353.5, 46.55, 298.8, -205.7, 0.975, 100, 1, 617],
        [75474, 209.3, 39.9, 172.7, -92.9, 0.975, 100, 1, 278.6],
        [75474, 209.3, 39.9, 172.7, -92.9, 0.975, 100, 1, 278.6],
        [75474, 209.3, 39.9, 172.7, -92.9, 0.975, 100, 1, 278.6],
        [75474, 209.3, 39.9, 172.7, -92.9, 0.975, 100, 1, 278.6],
        [75474, 195, 45.1, 195.2, -105, 0.975, 100, 1, 315],
        [75474, 195, 45.1, 195.2, -105, 0.975, 100, 1, 315],
        [75476, 209.3, 39.9, 172.7, -92.9, 0.975, 100, 1, 278.6],
        [75476, 209.3, 39.9, 172.7, -92.9, 0.975, 100, 1, 278.6],
        [75476, 195, 45.1, 195.2, -105, 0.975, 100, 1, 315],
        [75478, 17, 2.85, 12.4, -6.7, 0.975, 100, 1, 20],
        [75478, 20.6, 3.9, 16.9, -9.1, 0.975, 100, 1, 27.2],
        [75478, 14, 4.8, 17.3, -7.7, 0.975, 100, 1, 23],
        [75478, 61.265, 12.98, 54.13, -28.17, 0.975, 100, 1, 84.53],
        [75478, 61.265, 12.98, 54.13, -28.17, 0.975, 100, 1, 84.53],
        [75478, 61.265, 12.98, 54.13, -28.17, 0.975, 100, 1, 84.53],
        [75478, 138.1, 26.65, 115.4, -62.1, 0.975, 100, 1, 186.2],
        [75480, 262.75, 35.9, 230.3, -158.5, 0.975, 100, 1, 475.5],
        [75480, 170.5, 18.2, 116.7, -80.3, 0.975, 100, 1, 241],
        [75480, 170.5, 18.2, 116.7, -80.3, 0.975, 100, 1, 241],
        [75480, 496.3, 0, 211.2, -211.2, 0.975, 100, 1, 642.6],
        [75482, 157.5, 0, 77.2, -77.2, 0.975, 100, 1, 235],
        [75482, 157.5, 0, 77.2, -77.2, 0.975, 100, 1, 235],
        [75482, 157.5, 0, 77.2, -77.2, 0.975, 100, 1, 235],
        [75482, 157.5, 0, 77.2, -77.2, 0.975, 100, 1, 235],
        [75483, 172.5, 0, 75.6, -75.6, 0.975, 100, 1, 230],
        [75483, 97.5, 0, 42.7, -42.7, 0.975, 100, 1, 130],
        [75484, 154, 28.6, 123.9, -66.7, 0.975, 100, 1, 200],
        [75485, 98, 19.5, 84.3, -45.3, 0.975, 100, 1, 136],
        [75488, 40.55, 7, 30.4, -16.4, 0.975, 100, 1, 49.1],
        [75488, 108.45, 18.45, 79.9, -43, 0.975, 100, 1, 128.9],
        [75490, 106.85, 0, 32.3, -32.3, 0.975, 100, 1, 128.7],
        [75490, 106.85, 0, 32.3, -32.3, 0.975, 100, 1, 128.7],
        [75490, 79.35, 0, 32.3, -32.3, 0.975, 100, 1, 128.7],
        [75492, 70.45, 11.55, 50.1, -27, 0.975, 100, 1, 80.9],
        [75492, 77, 12.9, 55.8, -30, 0.975, 100, 1, 90],
        [75492, 77, 12.9, 55.8, -30, 0.975, 100, 1, 90],
        [75493, 43, 8.3, 35.9, -19.3, 0.975, 100, 1, 58],
        [75493, 43, 8.3, 35.9, -19.3, 0.975, 100, 1, 58],
        [75493, 16.5, 1.9, 12.1, -8.3, 0.975, 100, 1, 25],
        [75493, 56.5, 5.75, 36.8, -25.3, 0.975, 100, 1, 76],
        [75494, 9.15, 2.15, 7.73, -3.43, 0.975, 100, 1, 10.3],
        [75494, 9.15, 2.15, 7.73, -3.43, 0.975, 100, 1, 10.3],
        [75494, 9.15, 2.15, 7.73, -3.43, 0.975, 100, 1, 10.3],
        [75494, 9.15, 2.15, 7.73, -3.43, 0.975, 100, 1, 10.3],
        [75494, 9.15, 2.15, 7.73, -3.43, 0.975, 100, 1, 10.3],
        [75494, 9.15, 2.15, 7.73, -3.43, 0.975, 100, 1, 10.3],
...
    ])
    ppc['gencost'] = array([
        [2, 0, 0, 3, 0.01075, 66.8],
        [2, 0, 0, 3, 0.05402, 38.32],
        [2, 0, 0, 3, 0, 0.004167],
        [2, 0, 0, 3, 0, 15.11],
        [2, 0, 0, 3, 0, 17.16],
        [2, 0, 0, 3, 0, 13.53],
        [2, 0, 0, 3, 0, 16.97],
        [2, 0, 0, 3, 0, 17.22],
        [2, 0, 0, 3, 0, 14.98],
        [2, 0, 0, 3, 0, 0.008333],
        [2, 0, 0, 3, 0, 41.63],
        [2, 0, 0, 3, 0, 56.74],
        [2, 0, 0, 3, 0, 50.65],
        [2, 0, 0, 3, 0, 0.002174],
        [2, 0, 0, 3, 0, 0.002174],
        [2, 0, 0, 3, 0, 13.8],
        [2, 0, 0, 3, 0, 0.01667],
        [2, 0, 0, 3, 0, 0.009091],
        [2, 0, 0, 3, 0, 48.45],
        [2, 0, 0, 3, 0, 51.68],
        [2, 0, 0, 3, 0, 53.69],
        [2, 0, 0, 3, 0, 45.88],
        [2, 0, 0, 3, 0, 18.72],
        [2, 0, 0, 3, 0, 16.84],
        [2, 0, 0, 3, 0, 38.79],
        [2, 0, 0, 3, 0, 56.84],
        [2, 0, 0, 3, 0, 66.27],
        [2, 0, 0, 3, 0, 69.57],
        [2, 0, 0, 3, 0, 16.3],
        [2, 0, 0, 3, 0, 17.45],
        [2, 0, 0, 3, 0, 13.61],
        [2, 0, 0, 3, 0, 25.98],
        [2, 0, 0, 3, 0, 23.13],
        [2, 0, 0, 3, 0, 28.72],
        [2, 0, 0, 3, 0, 0.002],
        [2, 0, 0, 3, 0, 27.99],
        [2, 0, 0, 3, 0, 0.002],
        [2, 0, 0, 3, 0, 0.002],
        [2, 0, 0, 3, 0, 0.002],
        [2, 0, 0, 3, 0, 0.002],
        [2, 0, 0, 3, 0, 0.002],
        [2, 0, 0, 3, 0, 14.44],
        [2, 0, 0, 3, 0, 14.09],
        [2, 0, 0, 3, 0, 26.31],
        [2, 0, 0, 3, 0, 14.28],
        [2, 0, 0, 3, 0, 14.98],
        [2, 0, 0, 3, 0, 16.33],
        [2, 0, 0, 3, 0, 16.57],
        [2, 0, 0, 3, 0, 12.23],
        [2, 0, 0, 3, 0, 53.31],
        [2, 0, 0, 3, 0, 23.67],
        [2, 0, 0, 3, 0, 22.3],
        [2, 0, 0, 3, 0.03153, 9.089],
        [2, 0, 0, 3, 0, 22.74],
        [2, 0, 0, 3, 0.04152, 41.17],
        [2, 0, 0, 3, 0, 0.002899],
        [2, 0, 0, 3, 0, 0.002899],
        [2, 0, 0, 3, 0, 0.002899],
        [2, 0, 0, 3, 0, 0.002899],
        [2, 0, 0, 3, 0, 0.002899],
        [2, 0, 0, 3, 0, 0.002899],
        [2, 0, 0, 3, 0, 0.000237],
        [2, 0, 0, 3, 0, 42.3],
        [2, 0, 0, 3, 0, 66.03],
        [2, 0, 0, 3, 0, 67.75],
        [2, 0, 0, 3, 0, 41.13],
        [2, 0, 0, 3, 0, 39.58],
        [2, 0, 0, 3, 0, 34.04],
        [2, 0, 0, 3, 0, 37.76],
        [2, 0, 0, 3, 0, 38.98],
        [2, 0, 0, 3, 0, 32.19],
        [2, 0, 0, 3, 0, 34.2],
        [2, 0, 0, 3, 0, 15.94],
        [2, 0, 0, 3, 0, 35.29],
        [2, 0, 0, 3, 0, 0.000413],
        [2, 0, 0, 3, 0, 33.93],
        [2, 0, 0, 3, 0, 35.11],
        [2, 0, 0, 3, 0, 13.53],
        [2, 0, 0, 3, 0, 17.73],
        [2, 0, 0, 3, 0, 16.21],
        [2, 0, 0, 3, 0, 0.002941],
        [2, 0, 0, 3, 0, 0.002941],
        [2, 0, 0, 3, 0, 0.002941],
        [2, 0, 0, 3, 0, 52.98],
        [2, 0, 0, 3, 0.0009, 3.165],
        [2, 0, 0, 3, 0.001143, 2.528],
        [2, 0, 0, 3, 0, 0],
        [2, 0, 0, 3, 0.05201, 90.4],
        [2, 0, 0, 3, 0.03151, 10.88],
        [2, 0, 0, 3, 0.02677, 12.78],
        [2, 0, 0, 3, 0.03234, 10.6],
        [2, 0, 0, 3, 0.03069, 11.16],
        [2, 0, 0, 3, 0.02808, 12.19],
        [2, 0, 0, 3, 0.03371, 8.511],
        [2, 0, 0, 3, 0.03644, 7.882],
        [2, 0, 0, 3, 0.03227, 8.881],
        [2, 0, 0, 3, 0.0119, 19.18],
        [2, 0, 0, 3, 0, 21.58],
        [2, 0, 0, 3, 0.01016, 70.66],
        [2, 0, 0, 3, 0, 19.64],
        [2, 0, 0, 3, 0, 17.85],
        [2, 0, 0, 3, 0.009623, 74.56],
        [2, 0, 0, 3, 0, 83.6],
        [2, 0, 0, 3, 0, 55.15],
        [2, 0, 0, 3, 0, 45.93],
        [2, 0, 0, 3, 0, 50.47],
        [2, 0, 0, 3, 0, 50.29],
        [2, 0, 0, 3, 0, 15.74],
        [2, 0, 0, 3, 0, 17.15],
        [2, 0, 0, 3, 0, 48.74],
        [2, 0, 0, 3, 0, 47.32],
        [2, 0, 0, 3, 0, 53.13],
        [2, 0, 0, 3, 0, 52.24],
        [2, 0, 0, 3, 0, 16.83],
        [2, 0, 0, 3, 0, 16.64],
        [2, 0, 0, 3, 0, 15.82],
        [2, 0, 0, 3, 0, 15.28],
        [2, 0, 0, 3, 0, 14.35],
        [2, 0, 0, 3, 0, 37.01],
        [2, 0, 0, 3, 0, 33.22],
        [2, 0, 0, 3, 0, 20.66],
        [2, 0, 0, 3, 0, 17.61],
        [2, 0, 0, 3, 0, 48.4],
        [2, 0, 0, 3, 0, 58.28],
        [2, 0, 0, 3, 0, 46.98],
        [2, 0, 0, 3, 0, 47.82],
        [2, 0, 0, 3, 0, 27.22],
        [2, 0, 0, 3, 0, 20.76],
        [2, 0, 0, 3, 0, 22.85],
        [2, 0, 0, 3, 0, 21.01],
        [2, 0, 0, 3, 0, 14.8],
        [2, 0, 0, 3, 0, 57.12],
        [2, 0, 0, 3, 0.008596, 83.52],
        [2, 0, 0, 3, 0.01019, 70.46],
        [2, 0, 0, 3, 0, 15.24],
        [2, 0, 0, 3, 0, 29.72],
        [2, 0, 0, 3, 0, 28],
        [2, 0, 0, 3, 0, 33.38],
        [2, 0, 0, 3, 0, 13.17],
        [2, 0, 0, 3, 0, 13.49],
        [2, 0, 0, 3, 0, 16.92],
        [2, 0, 0, 3, 0, 16.77],
        [2, 0, 0, 3, 0, 12.63],
        [2, 0, 0, 3, 0, 34.47],
        [2, 0, 0, 3, 0, 32.65],
        [2, 0, 0, 3, 0, 33.17],
        [2, 0, 0, 3, 0.3784, 17.65],
        [2, 0, 0, 3, 0.5021, 13.53],
        [2, 0, 0, 3, 0.02591, 13.2],
        [2, 0, 0, 3, 0.0272, 12.58],
        [2, 0, 0, 3, 0.03013, 11.36],
        [2, 0, 0, 3, 0.027, 12.67],
        [2, 0, 0, 3, 0.02636, 12.98],
        [2, 0, 0, 3, 0.01097, 65.47],
        [2, 0, 0, 3, 0.02776, 12.32],
        [2, 0, 0, 3, 0.03642, 9.424],
        [2, 0, 0, 3, 0.03098, 11.06],
        [2, 0, 0, 3, 0.03299, 10.39],
        [2, 0, 0, 3, 0.02716, 12.59],
        [2, 0, 0, 3, 0.02543, 13.44],
        [2, 0, 0, 3, 0.03698, 9.284],
        [2, 0, 0, 3, 0.03677, 9.336],
        [2, 0, 0, 3, 0.02558, 13.37],
        [2, 0, 0, 3, 0, 60.49],
        [2, 0, 0, 3, 0, 15.82],
        [2, 0, 0, 3, 0, 17.29],
        [2, 0, 0, 3, 0, 15.54],
        [2, 0, 0, 3, 0, 14.41],
        [2, 0, 0, 3, 0, 16.4],
        [2, 0, 0, 3, 0, 20.76],
        [2, 0, 0, 3, 0.008594, 83.54],
        [2, 0, 0, 3, 0, 0],
        [2, 0, 0, 3, 0, 0],
        [2, 0, 0, 3, 0.02255, 12.43],
        [2, 0, 0, 3, 0.4893, 14.04],
        [2, 0, 0, 3, 0.5206, 13.29],
        [2, 0, 0, 3, 0.4619, 14.79],
        [2, 0, 0, 3, 0.3958, 17.05],
        [2, 0, 0, 3, 0, 20.97],
        [2, 0, 0, 3, 0, 19.94],
        [2, 0, 0, 3, 0, 21.78],
        [2, 0, 0, 3, 0, 15.14],
        [2, 0, 0, 3, 0, 19.34],
        [2, 0, 0, 3, 0, 18.55],
        [2, 0, 0, 3, 0, 23.99],
        [2, 0, 0, 3, 0, 22.34],
        [2, 0, 0, 3, 0, 22.76],
        [2, 0, 0, 3, 0, 23.02],
        [2, 0, 0, 3, 0, 23.45],
        [2, 0, 0, 3, 0, 17.73],
        [2, 0, 0, 3, 0, 18],
        [2, 0, 0, 3, 0, 15.94],
        [2, 0, 0, 3, 0, 17.83],
        [2, 0, 0, 3, 0, 20.89],
        [2, 0, 0, 3, 0, 0.004],
        [2, 0, 0, 3, 0, 0.004],
        [2, 0, 0, 3, 0, 0.004],
        [2, 0, 0, 3, 0, 0.004],
        [2, 0, 0, 3, 0, 0.004],
        [2, 0, 0, 3, 0, 0.004],
...
    ])
    ppc['branch'] = array([
        [1, 650, 0.0440029, 0.231829, 0.00416148, 96, 96, 129, 0, 0, 1, -30],
        [1, 903, 0.0065188, 0.0661654, 0.00134025, 154, 154, 199, 0, 0, 1, -30],
        [1, 905, 0.00333213, 0.0364493, 0.000759498, 162, 162, 199, 0, 0, 1, -30],
        [2, 683, 0.00217379, 0.00836299, 0.00228418, 159, 159, 159, 0, 0, 1, -30],
        [2, 75692, 0.000794052, 0.00603894, 0.00189761, 253, 259, 259, 0, 0, 1, -30],
        [2, 75693, 0.00171474, 0.00963476, 0.00285464, 207, 211, 211, 0, 0, 1, -30],
        [2, 75696, 0.000335965, 0.00356044, 0.00105683, 307, 307, 307, 0, 0, 1, -30],
        [3, 6, 0.000176282, 0.00201502, 3.8408e-05, 162, 162, 199, 0, 0, 1, -30],
        [3, 236, 0.000999816, 0.0101479, 0.000205553, 154, 154, 199, 0, 0, 1, -30],
        [4, 12, 0.00416723, 0.0203445, 0.000426326, 96, 96, 129, 0, 0, 1, -30],
        [4, 276, 0.0224763, 0.0550162, 0.000940668, 59, 59, 99, 0, 0, 1, -30],
        [4, 279, 0.0107478, 0.0284044, 0.000415527, 59, 59, 99, 0, 0, 1, -30],
        [4, 280, 0.00392264, 0.0429089, 0.000894099, 162, 162, 199, 0, 0, 1, -30],
        [5, 952, 0.00413977, 0.0227157, 0.00600443, 193, 193, 193, 0, 0, 1, -30],
        [5, 75764, 0.0101647, 0.0258509, 0.00654076, 118, 118, 118, 0, 0, 1, -30],
        [5, 75765, 0.00107397, 0.0129703, 0.00735527, 523, 523, 523, 0, 0, 1, -30],
        [6, 235, 0.00630091, 0.0166521, 0.000243603, 59, 59, 99, 0, 0, 1, -30],
        [6, 236, 0.00134834, 0.00934307, 0.000192108, 119, 119, 149, 0, 0, 1, -30],
        [6, 237, 0.00099799, 0.0100539, 0.000247701, 162, 162, 199, 0, 0, 1, -30],
        [6, 268, 0.00525814, 0.0231672, 0.00040241, 88, 88, 129, 0, 0, 1, -30],
        [7, 623, 0.0164766, 0.0763537, 0.00146439, 92, 92, 129, 0, 0, 1, -30],
        [7, 625, 0.0190739, 0.0763651, 0.00120242, 80, 80, 129, 0, 0, 1, -30],
        [7, 630, 0.0259444, 0.0685671, 0.00100308, 59, 59, 99, 0, 0, 1, -30],
        [7, 631, 0.0259797, 0.0737234, 0.00115837, 64, 64, 119, 0, 0, 1, -30],
        [8, 812, 0.0016434, 0.0104086, 0.000176556, 110, 110, 139, 0, 0, 1, -30],
        [8, 821, 0.00505125, 0.0133495, 0.00019529, 59, 59, 99, 0, 0, 1, -30],
        [8, 822, 0.0103604, 0.0266324, 0.000412168, 59, 59, 99, 0, 0, 1, -30],
        [8, 825, 0.0132758, 0.0478046, 0.000648196, 71, 71, 119, 0, 0, 1, -30],
        [9, 733, 0.0267622, 0.068061, 0.00107627, 59, 59, 99, 0, 0, 1, -30],
        [9, 753, 0.00613338, 0.015598, 0.000246653, 59, 59, 99, 0, 0, 1, -30],
        [9, 754, 0.00187384, 0.0204974, 0.000427105, 162, 162, 199, 0, 0, 1, -30],
        [9, 761, 0.0289722, 0.0736814, 0.00116515, 59, 59, 99, 0, 0, 1, -30],
        [10, 857, 0.0494122, 0.120953, 0.00206815, 59, 59, 99, 0, 0, 1, -30],
        [10, 900, 0.0262592, 0.0845586, 0.00144043, 71, 71, 119, 0, 0, 1, -30],
        [10, 902, 0.0107217, 0.0283354, 0.000414519, 59, 59, 99, 0, 0, 1, -30],
        [10, 903, 0.0503083, 0.167837, 0.00266057, 71, 71, 119, 0, 0, 1, -30],
        [11, 217, 0.0307067, 0.0811536, 0.00118722, 59, 59, 99, 0, 0, 1, -30],
        [11, 232, 0.00430046, 0.0261353, 0.000482141, 114, 124, 149, 0, 0, 1, -30],
        [11, 233, 0.0023338, 0.014348, 0.000258606, 113, 124, 149, 0, 0, 1, -30],
        [11, 234, 0.00051065, 0.00268991, 4.82743e-05, 112, 129, 139, 0, 0, 1, -30],
        [11, 236, 0.00157611, 0.018016, 0.0003434, 162, 162, 199, 0, 0, 1, -30],
        [12, 691, 0.0231131, 0.0536516, 0.00102157, 59, 59, 99, 0, 0, 1, -30],
        [12, 696, 0.0122117, 0.0298908, 0.000511069, 59, 59, 99, 0, 0, 1, -30],
        [13, 430, 0.000421012, 0.00481244, 9.17291e-05, 162, 162, 199, 0, 0, 1, -30],
        [13, 432, 0.0101208, 0.0389365, 0.00066467, 80, 80, 129, 0, 0, 1, -30],
        [14, 273, 0.0201074, 0.0531404, 0.000777397, 59, 59, 99, 0, 0, 1, -30],
        [14, 274, 0.0121377, 0.0308679, 0.000488117, 60, 63, 119, 0, 0, 1, -30],
        [14, 275, 0.00477114, 0.0101862, 0.000229945, 59, 59, 99, 0, 0, 1, -30],
        [14, 693, 0.0101168, 0.0257285, 0.000406848, 59, 59, 99, 0, 0, 1, -30],
        [15, 730, 0.0132214, 0.0795486, 0.00108951, 96, 96, 129, 0, 0, 1, -30],
        [15, 753, 0.00623368, 0.0141399, 0.00028208, 59, 59, 99, 0, 0, 1, -30],
        [15, 756, 0.0106271, 0.0270262, 0.000427367, 59, 59, 99, 0, 0, 1, -30],
        [16, 503, 0.00720124, 0.0183138, 0.000289597, 59, 59, 99, 0, 0, 1, -30],
        [16, 523, 0.0101214, 0.0267489, 0.000391309, 59, 59, 99, 0, 0, 1, -30],
        [17, 507, 0.00175376, 0.00923813, 0.000165791, 96, 96, 129, 0, 0, 1, -30],
        [17, 508, 0.0034377, 0.00779775, 0.000155559, 59, 59, 99, 0, 0, 1, -30],
        [17, 509, 0.00367076, 0.00970113, 0.000141917, 59, 59, 99, 0, 0, 1, -30],
        [18, 500, 0.00647188, 0.0319721, 0.000583602, 95, 95, 129, 0, 0, 1, -30],
        [18, 527, 0.011044, 0.0291872, 0.000426979, 59, 59, 99, 0, 0, 1, -30],
        [18, 529, 0.0124499, 0.0304738, 0.000521038, 59, 59, 99, 0, 0, 1, -30],
        [19, 326, 0.0109915, 0.0279529, 0.000442021, 59, 59, 99, 0, 0, 1, -30],
        [19, 803, 0.00395048, 0.0432134, 0.000900445, 162, 162, 199, 0, 0, 1, -30],
        [19, 807, 0.0238644, 0.0955458, 0.00150445, 80, 80, 129, 0, 0, 1, -30],
        [20, 960, 0.000729057, 0.0038404, 0.00110274, 193, 193, 193, 0, 0, 1, -30],
        [20, 75769, 0.00559295, 0.0142238, 0.00359878, 118, 118, 118, 0, 0, 1, -30],
        [21, 290, 0.0168789, 0.0535948, 0.000939692, 71, 71, 119, 0, 0, 1, -30],
        [21, 331, 0.0368433, 0.0937001, 0.00148173, 59, 59, 99, 0, 0, 1, -30],
        [21, 799, 0.018276, 0.087106, 0.00157704, 92, 92, 129, 0, 0, 1, -30],
        [22, 849, 0.0141624, 0.0410017, 0.000498383, 59, 59, 99, 0, 0, 1, -30],
        [22, 873, 0.00609955, 0.015512, 0.000245292, 59, 59, 99, 0, 0, 1, -30],
        [23, 527, 0.00566831, 0.0140689, 0.000233788, 59, 59, 99, 0, 0, 1, -30],
        [24, 925, 0.00567925, 0.0311637, 0.00823773, 193, 193, 193, 0, 0, 1, -30],
        [24, 930, 0.000221188, 0.00116513, 0.00033456, 193, 193, 193, 0, 0, 1, -30],
        [24, 75757, 0.00219849, 0.00835656, 0.00233921, 159, 159, 159, 0, 0, 1, -30],
        [25, 567, 0.00764409, 0.0384055, 0.000624651, 92, 92, 129, 0, 0, 1, -30],
        [25, 572, 0.0100663, 0.0255999, 0.000404814, 59, 59, 99, 0, 0, 1, -30],
        [26, 143, 0.00984479, 0.026018, 0.000380616, 59, 59, 99, 0, 0, 1, -30],
        [26, 144, 0.0134981, 0.0343276, 0.000542826, 59, 59, 99, 0, 0, 1, -30],
        [26, 160, 0.00935526, 0.0237918, 0.000376221, 59, 75, 99, 0, 0, 1, -30],
        [26, 170, 0.00215911, 0.00542742, 8.78778e-05, 59, 75, 99, 0, 0, 1, -30],
        [27, 773, 0.00139402, 0.0150464, 0.000322157, 162, 162, 199, 0, 0, 1, -30],
        [27, 775, 0.00814422, 0.0215237, 0.000314869, 59, 59, 99, 0, 0, 1, -30],
        [28, 592, 0.00876388, 0.0231613, 0.000338826, 59, 59, 99, 0, 0, 1, -30],
        [28, 593, 0.00105, 0.00301152, 4.63124e-05, 64, 64, 119, 0, 0, 1, -30],
        [28, 599, 0.00928835, 0.0236216, 0.00037353, 59, 59, 99, 0, 0, 1, -30],
        [29, 588, 0.0346637, 0.0871372, 0.00141092, 59, 59, 99, 0, 0, 1, -30],
        [29, 599, 0.00643093, 0.0145873, 0.000291005, 59, 59, 99, 0, 0, 1, -30],
        [29, 600, 0.00331144, 0.0357423, 0.000765279, 162, 162, 199, 0, 0, 1, -30],
        [30, 569, 0.00729326, 0.0192747, 0.000281969, 59, 59, 99, 0, 0, 1, -30],
        [30, 572, 0.00540154, 0.0247796, 0.000396732, 88, 88, 129, 0, 0, 1, -30],
        [31, 132, 0.0518868, 0.137134, 0.00200626, 59, 59, 99, 0, 0, 1, -30],
        [31, 136, 0.00424129, 0.0469692, 0.000954827, 162, 162, 199, 0, 0, 1, -30],
        [31, 139, 0.00260956, 0.0256875, 0.000663464, 162, 162, 199, 0, 0, 1, -30],
        [31, 140, 0.00755855, 0.0190001, 0.00030764, 59, 59, 99, 0, 0, 1, -30],
        [31, 141, 0.00603836, 0.0153564, 0.000242831, 59, 63, 99, 0, 0, 1, -30],
        [31, 143, 0.0149035, 0.0393873, 0.000576198, 59, 59, 99, 0, 0, 1, -30],
        [31, 144, 0.00722879, 0.0191044, 0.000279477, 59, 59, 99, 0, 0, 1, -30],
        [32, 1347, 0.00105916, 0.0115858, 0.000241413, 162, 162, 199, 0, 0, 1, -30],
        [32, 1348, 0.008503, 0.087359, 0.001727, 100, 100, 139, 0, 0, 1, -30],
        [32, 1348, 0.008503, 0.087359, 0.001727, 100, 100, 139, 0, 0, 1, -30],
        [33, 1718, 0.0420333, 0.0975728, 0.00185792, 59, 59, 99, 0, 0, 1, -30],
        [33, 1756, 0.019862, 0.0655454, 0.00106184, 71, 71, 119, 0, 0, 1, -30],
        [33, 1758, 0.00645459, 0.0324521, 0.000881984, 110, 110, 139, 0, 0, 1, -30],
        [33, 1759, 0.0145912, 0.0642892, 0.00111671, 88, 88, 129, 0, 0, 1, -30],
        [33, 1760, 0.0191856, 0.0835049, 0.00148692, 88, 88, 129, 0, 0, 1, -30],
        [33, 1813, 0.0237638, 0.114661, 0.00202471, 92, 92, 129, 0, 0, 1, -30],
        [34, 1395, 0.042407, 0.106603, 0.00172614, 59, 59, 99, 0, 0, 1, -30],
        [34, 1406, 0.0739039, 0.195335, 0.0028579, 59, 59, 99, 0, 0, 1, -30],
        [34, 3338, 0.0684989, 0.38506, 0.00713523, 103, 103, 139, 0, 0, 1, -30],
        [34, 3476, 0.0984492, 0.317114, 0.00540396, 71, 71, 119, 0, 0, 1, -30],
        [35, 434, 0.0442139, 0.116853, 0.00170952, 59, 59, 99, 0, 0, 1, -30],
        [35, 438, 0.0335643, 0.0862819, 0.00133535, 59, 59, 99, 0, 0, 1, -30],
        [35, 1803, 0.0179539, 0.0592485, 0.000959824, 71, 71, 119, 0, 0, 1, -30],
        [36, 2209, 0.0117606, 0.0714741, 0.00131857, 110, 110, 139, 0, 0, 1, -30],
        [36, 2219, 0.0407126, 0.204572, 0.00332782, 92, 92, 129, 0, 0, 1, -30],
        [36, 2292, 0.0179014, 0.0444319, 0.000738347, 59, 59, 99, 0, 0, 1, -30],
        [37, 2292, 0.0130048, 0.0905992, 0.00212879, 125, 125, 149, 0, 0, 1, -30],
        [37, 2746, 0.0250877, 0.125479, 0.00223379, 95, 95, 129, 0, 0, 1, -30],
        [37, 2750, 0.0191427, 0.0492085, 0.000761564, 59, 59, 99, 0, 0, 1, -30],
        [38, 1985, 0.00220126, 0.024079, 0.000501734, 162, 162, 199, 0, 0, 1, -30],
        [38, 2007, 0.00261916, 0.0290051, 0.000589635, 162, 162, 199, 0, 0, 1, -30],
        [38, 2024, 0.00162095, 0.0169677, 0.000386828, 162, 162, 199, 0, 0, 1, -30],
        [38, 2446, 0.00908622, 0.0498569, 0.000823647, 96, 96, 129, 0, 0, 1, -30],
        [38, 2462, 0.00703141, 0.0445345, 0.000755421, 110, 110, 139, 0, 0, 1, -30],
        [38, 2576, 0.00227216, 0.0230619, 0.000467135, 154, 154, 199, 0, 0, 1, -30],
        [39, 49, 0.00247224, 0.0108926, 0.000189202, 103, 120, 139, 0, 0, 1, -30],
        [39, 2247, 0.0161779, 0.0661187, 0.00133754, 88, 88, 129, 0, 0, 1, -30],
        [39, 2251, 0.0027559, 0.0301461, 0.000628156, 162, 162, 199, 0, 0, 1, -30],
        [39, 2264, 0.00161076, 0.0176197, 0.000367141, 162, 162, 199, 0, 0, 1, -30],
        [39, 2285, 0.00410569, 0.0208909, 0.000473351, 103, 103, 139, 0, 0, 1, -30],
        [40, 2039, 0.00237983, 0.0159449, 0.000305282, 115, 115, 149, 0, 0, 1, -30],
        [40, 2437, 0.00242299, 0.0112499, 0.000307145, 103, 103, 139, 0, 0, 1, -30],
        [40, 2441, 0.00243384, 0.0121725, 0.000216682, 95, 95, 129, 0, 0, 1, -30],
        [40, 2477, 0.0120301, 0.0317933, 0.000465105, 59, 59, 99, 0, 0, 1, -30],
        [40, 2605, 0.00170517, 0.00682679, 0.00010749, 80, 80, 129, 0, 0, 1, -30],
        [41, 1455, 0.00548003, 0.0450527, 0.000873239, 131, 131, 149, 0, 0, 1, -30],
        [41, 1472, 0.00340985, 0.0368045, 0.000788022, 162, 162, 199, 0, 0, 1, -30],
        [41, 1478, 0.0090866, 0.0845947, 0.00163779, 141, 141, 149, 0, 0, 1, -30],
        [41, 1483, 0.0381904, 0.0971263, 0.00153591, 59, 59, 99, 0, 0, 1, -30],
        [41, 3079, 0.0449994, 0.150123, 0.00237972, 71, 71, 119, 0, 0, 1, -30],
        [41, 3087, 0.0282713, 0.106058, 0.00190637, 80, 80, 129, 0, 0, 1, -30],
        [42, 1701, 0.0321464, 0.110277, 0.00165122, 71, 71, 119, 0, 0, 1, -30],
        [42, 1711, 0.044408, 0.136383, 0.00255939, 71, 71, 119, 0, 0, 1, -30],
        [42, 2824, 0.0520039, 0.274001, 0.00491895, 96, 96, 129, 0, 0, 1, -30],
        [43, 2769, 0.0243727, 0.0836083, 0.00125188, 71, 71, 119, 0, 0, 1, -30],
        [43, 2772, 0.023828, 0.0605986, 0.000958261, 59, 59, 99, 0, 0, 1, -30],
        [43, 2775, 0.0496936, 0.126384, 0.00199862, 59, 59, 99, 0, 0, 1, -30],
        [43, 2777, 0.0445322, 0.148564, 0.00235501, 71, 71, 119, 0, 0, 1, -30],
        [44, 67, 0.00951088, 0.052771, 0.00100255, 103, 103, 139, 0, 0, 1, -30],
        [44, 1429, 0.0311256, 0.106775, 0.00159877, 71, 71, 119, 0, 0, 1, -30],
        [44, 1432, 0.0153649, 0.0406067, 0.000594037, 59, 59, 99, 0, 0, 1, -30],
        [44, 1433, 0.0232975, 0.0592493, 0.000936923, 59, 59, 99, 0, 0, 1, -30],
        [45, 1777, 0.0215021, 0.0568264, 0.00083132, 59, 59, 99, 0, 0, 1, -30],
        [45, 1836, 0.0378517, 0.124916, 0.00202373, 71, 71, 119, 0, 0, 1, -30],
        [45, 1842, 0.0198308, 0.0654423, 0.00106017, 71, 71, 119, 0, 0, 1, -30],
        [45, 1846, 0.0197784, 0.052271, 0.000764677, 59, 59, 99, 0, 0, 1, -30],
        [46, 2747, 0.0112197, 0.0260437, 0.00049589, 59, 59, 99, 0, 0, 1, -30],
        [46, 2780, 0.05119, 0.293543, 0.00365122, 92, 92, 129, 0, 0, 1, -30],
        [47, 2296, 0.000904712, 0.00549822, 0.00162288, 219, 219, 219, 0, 0, 1, -30],
        [48, 1734, 0.0114295, 0.0392073, 0.000587045, 71, 71, 119, 0, 0, 1, -30],
        [48, 1735, 0.00661976, 0.0363231, 0.000600062, 96, 96, 129, 0, 0, 1, -30],
        [49, 2253, 0.00183158, 0.0200352, 0.000417473, 162, 162, 199, 0, 0, 1, -30],
        [50, 2466, 0.00328827, 0.00869028, 0.00012713, 59, 59, 99, 0, 0, 1, -30],
        [50, 2470, 0.000708438, 0.00753572, 0.000166241, 162, 162, 199, 0, 0, 1, -30],
        [50, 2603, 0.000304032, 0.00328159, 7.02616e-05, 162, 162, 199, 0, 0, 1, -30],
        [51, 1710, 0.0141416, 0.0425641, 0.000832254, 71, 71, 119, 0, 0, 1, -30],
        [51, 1712, 0.010508, 0.0248827, 0.000454931, 59, 59, 99, 0, 0, 1, -30],
        [52, 433, 0.0712554, 0.181231, 0.00286614, 59, 59, 99, 0, 0, 1, -30],
        [52, 1726, 0.00977703, 0.0335387, 0.000502168, 71, 71, 119, 0, 0, 1, -30],
        [52, 1728, 0.00323861, 0.0124595, 0.00021269, 80, 80, 129, 0, 0, 1, -30],
        [53, 1869, 0.0178328, 0.0453515, 0.000717151, 59, 59, 99, 0, 0, 1, -30],
        [53, 1872, 0.00556759, 0.0141591, 0.000223899, 59, 59, 99, 0, 0, 1, -30],
        [53, 1873, 0.00132515, 0.00639363, 0.000112894, 92, 92, 129, 0, 0, 1, -30],
        [53, 1874, 0.0040179, 0.0100999, 0.000163532, 59, 59, 99, 0, 0, 1, -30],
        [53, 1875, 0.00316246, 0.00794955, 0.000128715, 59, 59, 99, 0, 0, 1, -30],
        [53, 1876, 0.00469785, 0.0124155, 0.000181626, 59, 59, 99, 0, 0, 1, -30],
        [54, 1574, 0.00635237, 0.0209628, 0.000339594, 71, 71, 119, 0, 0, 1, -30],
        [54, 2587, 0.00804269, 0.0204537, 0.000323436, 59, 59, 99, 0, 0, 1, -30],
        [55, 1652, 0.0167932, 0.0427077, 0.000675343, 59, 59, 99, 0, 0, 1, -30],
        [55, 1672, 0.0184709, 0.0469744, 0.000742814, 59, 59, 99, 0, 0, 1, -30],
        [55, 1675, 0.0167296, 0.042546, 0.000672786, 59, 59, 99, 0, 0, 1, -30],
        [55, 1677, 0.00411072, 0.0213876, 0.000393628, 96, 96, 129, 0, 0, 1, -30],
        [55, 1680, 0.00435084, 0.0264414, 0.000487788, 110, 110, 139, 0, 0, 1, -30],
        [55, 3026, 0.0166079, 0.0830637, 0.00147866, 95, 95, 129, 0, 0, 1, -30],
        [56, 2164, 0.0289032, 0.169301, 0.00288255, 103, 103, 139, 0, 0, 1, -30],
        [56, 2168, 0.0340682, 0.0875774, 0.0013554, 65, 72, 119, 0, 0, 1, -30],
        [57, 2148, 0.00473079, 0.0125026, 0.0001829, 59, 59, 99, 0, 0, 1, -30],
        [57, 2149, 0.00485649, 0.0128348, 0.00018776, 59, 61, 99, 0, 0, 1, -30],
        [57, 2165, 0.0230872, 0.0573035, 0.000952245, 59, 59, 99, 0, 0, 1, -30],
        [58, 1369, 0.00801229, 0.0264406, 0.000428332, 71, 71, 119, 0, 0, 1, -30],
        [58, 1370, 0.00568456, 0.0236007, 0.000614263, 95, 95, 129, 0, 0, 1, -30],
        [58, 1371, 0.0123734, 0.0624494, 0.000824035, 88, 88, 129, 0, 0, 1, -30],
        [58, 1377, 0.00479535, 0.030372, 0.000515186, 110, 110, 139, 0, 0, 1, -30],
        [58, 1405, 0.0010966, 0.0118362, 0.000253423, 162, 162, 199, 0, 0, 1, -30],
        [59, 1651, 0.00867794, 0.0220692, 0.000348982, 59, 59, 99, 0, 0, 1, -30],
        [59, 1655, 0.00795466, 0.0180436, 0.000359956, 59, 59, 99, 0, 0, 1, -30],
        [60, 2392, 0.0318225, 0.0903043, 0.00141891, 64, 64, 119, 0, 0, 1, -30],
        [60, 2399, 0.040006, 0.101744, 0.00160894, 59, 59, 99, 0, 0, 1, -30],
        [61, 1772, 0.00565485, 0.0143811, 0.000227409, 59, 59, 99, 0, 0, 1, -30],
        [61, 1776, 0.00789507, 0.020295, 0.000314089, 59, 59, 99, 0, 0, 1, -30],
...
    ])

    return ppc
